Input file: data/GT_teardrop_128x128x128.vti
Output file: data/GT_teardrop_128x128x128_gaussian.vti
(128, 128, 128)
(0.496062496062992, 0.496062496062992, 0.496062496062992)
(3.150000000218256e-05, 3.150000000218256e-05, 3.150000000218256e-05)
no of arrays 1
['teardrop']
cuda
24.625696
